# generated using pymatgen
data_Dy(CoSi)2
_symmetry_space_group_name_H-M   'P 1'
_cell_length_a   3.84942161
_cell_length_b   3.84942161
_cell_length_c   9.69286727
_cell_angle_alpha   90.00000000
_cell_angle_beta   90.00000000
_cell_angle_gamma   90.00000000
_symmetry_Int_Tables_number   1
_chemical_formula_structural   Dy(CoSi)2
_chemical_formula_sum   'Dy2 Co4 Si4'
_cell_volume   143.62936052
_cell_formula_units_Z   2
loop_
 _symmetry_equiv_pos_site_id
 _symmetry_equiv_pos_as_xyz
  1  'x, y, z'
loop_
 _atom_type_symbol
 _atom_type_oxidation_number
  Dy3+  3.0
  Co2.50+  2.5
  Si4-  -4.0
loop_
 _atom_site_type_symbol
 _atom_site_label
 _atom_site_symmetry_multiplicity
 _atom_site_fract_x
 _atom_site_fract_y
 _atom_site_fract_z
 _atom_site_occupancy
  Dy3+  Dy0  1  0.00000000  0.00000000  0.00000000  1
  Dy3+  Dy1  1  0.50000000  0.50000000  0.50000000  1
  Co2.50+  Co2  1  0.50000000  0.00000000  0.75000000  1
  Co2.50+  Co3  1  0.00000000  0.50000000  0.75000000  1
  Co2.50+  Co4  1  0.00000000  0.50000000  0.25000000  1
  Co2.50+  Co5  1  0.50000000  0.00000000  0.25000000  1
  Si4-  Si6  1  0.00000000  0.00000000  0.62916700  1
  Si4-  Si7  1  0.50000000  0.50000000  0.87083300  1
  Si4-  Si8  1  0.50000000  0.50000000  0.12916700  1
  Si4-  Si9  1  0.00000000  0.00000000  0.37083300  1
