# This is a placeholder CIF file
# Replace with actual structure data
data_test
_cell_length_a 10.0
_cell_length_b 10.0
_cell_length_c 10.0
_cell_angle_alpha 90.0
_cell_angle_beta 90.0
_cell_angle_gamma 90.0
_symmetry_space_group_name_H-M "P 1"
_symmetry_Int_Tables_number 1
loop_
_atom_site_label
_atom_site_fract_x
_atom_site_fract_y
_atom_site_fract_z
Si 0.0 0.0 0.0